156974238
  -OEChem-09032305022D

142142  0     1  0  0  0  0  0999 V2000
    5.4428   -4.0608    0.0000 P   0  0  3  0  0  0  0  0  0  0  0  0
   12.4452  -10.9185    0.0000 O   0  0  0  0  0  0  0  0  0  0  0  0
   15.2930   -8.8494    0.0000 O   0  0  0  0  0  0  0  0  0  0  0  0
   13.5330   -5.5706    0.0000 O   0  0  0  0  0  0  0  0  0  0  0  0
    8.7118   -6.9442    0.0000 O   0  0  0  0  0  0  0  0  0  0  0  0
    8.1766   -8.5915    0.0000 O   0  0  0  0  0  0  0  0  0  0  0  0
    8.2960   -4.9879    0.0000 O   0  0  0  0  0  0  0  0  0  0  0  0
    6.3939   -4.3699    0.0000 O   0  0  0  0  0  0  0  0  0  0  0  0
    7.1370   -3.7007    0.0000 O   0  0  0  0  0  0  0  0  0  0  0  0
    4.4918   -3.7518    0.0000 O   0  0  0  0  0  0  0  0  0  0  0  0
    5.7518   -3.1098    0.0000 O   0  0  0  0  0  0  0  0  0  0  0  0
    5.1338   -5.0119    0.0000 O   0  0  0  0  0  0  0  0  0  0  0  0
    2.5896   -3.1338    0.0000 O   0  0  0  0  0  0  0  0  0  0  0  0
    2.1738   -1.1775    0.0000 O   0  0  0  0  0  0  0  0  0  0  0  0
   12.7240   -9.1584    0.0000 C   0  0  1  0  0  0  0  0  0  0  0  0
   13.5330   -8.5706    0.0000 C   0  0  2  0  0  0  0  0  0  0  0  0
   13.0330  -10.1095    0.0000 C   0  0  2  0  0  0  0  0  0  0  0  0
   14.3420   -9.1584    0.0000 C   0  0  1  0  0  0  0  0  0  0  0  0
   14.0330  -10.1095    0.0000 C   0  0  0  0  0  0  0  0  0  0  0  0
   11.7729   -8.8494    0.0000 C   0  0  0  0  0  0  0  0  0  0  0  0
   13.5330   -7.5706    0.0000 C   0  0  0  0  0  0  0  0  0  0  0  0
   11.0298   -9.5185    0.0000 C   0  0  0  0  0  0  0  0  0  0  0  0
   14.3990   -7.0706    0.0000 C   0  0  0  0  0  0  0  0  0  0  0  0
   14.3990   -6.0706    0.0000 C   0  0  1  0  0  0  0  0  0  0  0  0
   10.0787   -9.2095    0.0000 C   0  0  0  0  0  0  0  0  0  0  0  0
   15.2650   -5.5706    0.0000 C   0  0  0  0  0  0  0  0  0  0  0  0
    9.8708   -8.2314    0.0000 C   0  0  0  0  0  0  0  0  0  0  0  0
   15.2650   -4.5706    0.0000 C   0  0  0  0  0  0  0  0  0  0  0  0
   16.1310   -4.0706    0.0000 C   0  0  0  0  0  0  0  0  0  0  0  0
    8.9197   -7.9223    0.0000 C   0  0  0  0  0  0  0  0  0  0  0  0
   16.1310   -3.0706    0.0000 C   0  0  0  0  0  0  0  0  0  0  0  0
   16.9971   -2.5706    0.0000 C   0  0  0  0  0  0  0  0  0  0  0  0
   11.8347    7.5212    0.0000 C   0  0  0  0  0  0  0  0  0  0  0  0
   12.0426    6.5430    0.0000 C   0  0  0  0  0  0  0  0  0  0  0  0
   12.5779    8.1903    0.0000 C   0  0  0  0  0  0  0  0  0  0  0  0
   11.2995    5.8739    0.0000 C   0  0  0  0  0  0  0  0  0  0  0  0
   12.3699    9.1685    0.0000 C   0  0  0  0  0  0  0  0  0  0  0  0
    7.7608   -6.6352    0.0000 C   0  0  0  0  0  0  0  0  0  0  0  0
   11.5074    4.8958    0.0000 C   0  0  0  0  0  0  0  0  0  0  0  0
   13.1131    9.8376    0.0000 C   0  0  3  0  0  0  0  0  0  0  0  0
   10.7642    4.2266    0.0000 C   0  0  0  0  0  0  0  0  0  0  0  0
   10.9722    3.2485    0.0000 C   0  0  0  0  0  0  0  0  0  0  0  0
   10.2290    2.5794    0.0000 C   0  0  0  0  0  0  0  0  0  0  0  0
   10.4369    1.6012    0.0000 C   0  0  0  0  0  0  0  0  0  0  0  0
    9.6938    0.9321    0.0000 C   0  0  0  0  0  0  0  0  0  0  0  0
    7.5528   -5.6570    0.0000 C   0  0  2  0  0  0  0  0  0  0  0  0
   12.9052   10.8158    0.0000 C   0  0  0  0  0  0  0  0  0  0  0  0
    9.9017   -0.0461    0.0000 C   0  0  0  0  0  0  0  0  0  0  0  0
    9.1586   -0.7152    0.0000 C   0  0  0  0  0  0  0  0  0  0  0  0
   14.0641    9.5286    0.0000 C   0  0  0  0  0  0  0  0  0  0  0  0
    9.3665   -1.6933    0.0000 C   0  0  0  0  0  0  0  0  0  0  0  0
    8.6233   -2.3625    0.0000 C   0  0  0  0  0  0  0  0  0  0  0  0
    6.6018   -5.3480    0.0000 C   0  0  0  0  0  0  0  0  0  0  0  0
   13.6483   11.4849    0.0000 C   0  0  0  0  0  0  0  0  0  0  0  0
    8.8312   -3.3406    0.0000 C   0  0  0  0  0  0  0  0  0  0  0  0
    8.0881   -4.0098    0.0000 C   0  0  0  0  0  0  0  0  0  0  0  0
    4.2839   -2.7737    0.0000 C   0  0  0  0  0  0  0  0  0  0  0  0
    3.3328   -2.4647    0.0000 C   0  0  2  0  0  0  0  0  0  0  0  0
    3.1249   -1.4865    0.0000 C   0  0  0  0  0  0  0  0  0  0  0  0
   12.2855   -9.5968    0.0000 H   0  0  0  0  0  0  0  0  0  0  0  0
   12.9805   -8.2892    0.0000 H   0  0  0  0  0  0  0  0  0  0  0  0
   13.3144  -10.6619    0.0000 H   0  0  0  0  0  0  0  0  0  0  0  0
   14.7804   -9.5968    0.0000 H   0  0  0  0  0  0  0  0  0  0  0  0
   13.9682  -10.7261    0.0000 H   0  0  0  0  0  0  0  0  0  0  0  0
   14.6394  -10.2384    0.0000 H   0  0  0  0  0  0  0  0  0  0  0  0
   12.0640   -8.3020    0.0000 H   0  0  0  0  0  0  0  0  0  0  0  0
   11.2843   -8.4677    0.0000 H   0  0  0  0  0  0  0  0  0  0  0  0
   12.9960   -7.2606    0.0000 H   0  0  0  0  0  0  0  0  0  0  0  0
   12.6974  -11.4849    0.0000 H   0  0  0  0  0  0  0  0  0  0  0  0
   15.7538   -9.2642    0.0000 H   0  0  0  0  0  0  0  0  0  0  0  0
   11.1587  -10.1250    0.0000 H   0  0  0  0  0  0  0  0  0  0  0  0
   14.9359   -7.3806    0.0000 H   0  0  0  0  0  0  0  0  0  0  0  0
   13.8621   -6.3806    0.0000 H   0  0  0  0  0  0  0  0  0  0  0  0
    9.6180   -9.6244    0.0000 H   0  0  0  0  0  0  0  0  0  0  0  0
   15.4771   -6.1532    0.0000 H   0  0  0  0  0  0  0  0  0  0  0  0
   15.8756   -5.4630    0.0000 H   0  0  0  0  0  0  0  0  0  0  0  0
   10.4904   -8.2097    0.0000 H   0  0  0  0  0  0  0  0  0  0  0  0
    9.9571   -7.6174    0.0000 H   0  0  0  0  0  0  0  0  0  0  0  0
   15.0530   -3.9880    0.0000 H   0  0  0  0  0  0  0  0  0  0  0  0
   14.6544   -4.6783    0.0000 H   0  0  0  0  0  0  0  0  0  0  0  0
   13.5330   -4.9506    0.0000 H   0  0  0  0  0  0  0  0  0  0  0  0
   16.3431   -4.6532    0.0000 H   0  0  0  0  0  0  0  0  0  0  0  0
   16.7416   -3.9630    0.0000 H   0  0  0  0  0  0  0  0  0  0  0  0
   15.9190   -2.4880    0.0000 H   0  0  0  0  0  0  0  0  0  0  0  0
   15.5205   -3.1783    0.0000 H   0  0  0  0  0  0  0  0  0  0  0  0
   17.3071   -3.1076    0.0000 H   0  0  0  0  0  0  0  0  0  0  0  0
   17.5340   -2.2606    0.0000 H   0  0  0  0  0  0  0  0  0  0  0  0
   16.6871   -2.0337    0.0000 H   0  0  0  0  0  0  0  0  0  0  0  0
   11.5062    8.0470    0.0000 H   0  0  0  0  0  0  0  0  0  0  0  0
   11.2599    7.2889    0.0000 H   0  0  0  0  0  0  0  0  0  0  0  0
   12.3712    6.0173    0.0000 H   0  0  0  0  0  0  0  0  0  0  0  0
   12.6175    6.7753    0.0000 H   0  0  0  0  0  0  0  0  0  0  0  0
   12.9064    7.6645    0.0000 H   0  0  0  0  0  0  0  0  0  0  0  0
   13.1527    8.4226    0.0000 H   0  0  0  0  0  0  0  0  0  0  0  0
   10.9709    6.3997    0.0000 H   0  0  0  0  0  0  0  0  0  0  0  0
   10.7246    5.6417    0.0000 H   0  0  0  0  0  0  0  0  0  0  0  0
   12.0414    9.6943    0.0000 H   0  0  0  0  0  0  0  0  0  0  0  0
   11.7951    8.9362    0.0000 H   0  0  0  0  0  0  0  0  0  0  0  0
   11.8359    4.3700    0.0000 H   0  0  0  0  0  0  0  0  0  0  0  0
   12.0822    5.1280    0.0000 H   0  0  0  0  0  0  0  0  0  0  0  0
   13.5738   10.2525    0.0000 H   0  0  0  0  0  0  0  0  0  0  0  0
    7.1411   -6.6568    0.0000 H   0  0  0  0  0  0  0  0  0  0  0  0
    7.6745   -7.2491    0.0000 H   0  0  0  0  0  0  0  0  0  0  0  0
   10.4357    4.7524    0.0000 H   0  0  0  0  0  0  0  0  0  0  0  0
   10.1894    3.9944    0.0000 H   0  0  0  0  0  0  0  0  0  0  0  0
   11.3007    2.7227    0.0000 H   0  0  0  0  0  0  0  0  0  0  0  0
   11.5470    3.4808    0.0000 H   0  0  0  0  0  0  0  0  0  0  0  0
    9.9005    3.1052    0.0000 H   0  0  0  0  0  0  0  0  0  0  0  0
    9.6542    2.3471    0.0000 H   0  0  0  0  0  0  0  0  0  0  0  0
   10.7655    1.0754    0.0000 H   0  0  0  0  0  0  0  0  0  0  0  0
   11.0118    1.8335    0.0000 H   0  0  0  0  0  0  0  0  0  0  0  0
    9.3652    1.4579    0.0000 H   0  0  0  0  0  0  0  0  0  0  0  0
    9.1189    0.6998    0.0000 H   0  0  0  0  0  0  0  0  0  0  0  0
    8.1425   -5.8486    0.0000 H   0  0  0  0  0  0  0  0  0  0  0  0
   12.5766   11.3415    0.0000 H   0  0  0  0  0  0  0  0  0  0  0  0
   12.3303   10.5835    0.0000 H   0  0  0  0  0  0  0  0  0  0  0  0
   10.2302   -0.5719    0.0000 H   0  0  0  0  0  0  0  0  0  0  0  0
   10.4765    0.1862    0.0000 H   0  0  0  0  0  0  0  0  0  0  0  0
    8.8300   -0.1894    0.0000 H   0  0  0  0  0  0  0  0  0  0  0  0
    8.5837   -0.9475    0.0000 H   0  0  0  0  0  0  0  0  0  0  0  0
   13.8726    8.9389    0.0000 H   0  0  0  0  0  0  0  0  0  0  0  0
   14.6538    9.3370    0.0000 H   0  0  0  0  0  0  0  0  0  0  0  0
   14.2557   10.1182    0.0000 H   0  0  0  0  0  0  0  0  0  0  0  0
    9.6950   -2.2191    0.0000 H   0  0  0  0  0  0  0  0  0  0  0  0
    9.9413   -1.4611    0.0000 H   0  0  0  0  0  0  0  0  0  0  0  0
    8.2948   -1.8367    0.0000 H   0  0  0  0  0  0  0  0  0  0  0  0
    8.0485   -2.5947    0.0000 H   0  0  0  0  0  0  0  0  0  0  0  0
    5.9822   -5.3696    0.0000 H   0  0  0  0  0  0  0  0  0  0  0  0
    6.5155   -5.9620    0.0000 H   0  0  0  0  0  0  0  0  0  0  0  0
   14.0632   11.0241    0.0000 H   0  0  0  0  0  0  0  0  0  0  0  0
   14.1091   11.8997    0.0000 H   0  0  0  0  0  0  0  0  0  0  0  0
   13.2335   11.9456    0.0000 H   0  0  0  0  0  0  0  0  0  0  0  0
    9.1598   -3.8664    0.0000 H   0  0  0  0  0  0  0  0  0  0  0  0
    9.4061   -3.1084    0.0000 H   0  0  0  0  0  0  0  0  0  0  0  0
    5.3370   -2.6490    0.0000 H   0  0  0  0  0  0  0  0  0  0  0  0
    4.9035   -2.7520    0.0000 H   0  0  0  0  0  0  0  0  0  0  0  0
    4.3701   -2.1597    0.0000 H   0  0  0  0  0  0  0  0  0  0  0  0
    3.4617   -3.0711    0.0000 H   0  0  0  0  0  0  0  0  0  0  0  0
    3.7445   -1.4649    0.0000 H   0  0  0  0  0  0  0  0  0  0  0  0
    3.2112   -0.8726    0.0000 H   0  0  0  0  0  0  0  0  0  0  0  0
    2.0000   -2.9422    0.0000 H   0  0  0  0  0  0  0  0  0  0  0  0
    2.0449   -0.5711    0.0000 H   0  0  0  0  0  0  0  0  0  0  0  0
  1  8  1  0  0  0  0
  1 10  1  0  0  0  0
  1 11  1  0  0  0  0
  1 12  2  0  0  0  0
 17  2  1  6  0  0  0
  2 69  1  0  0  0  0
 18  3  1  6  0  0  0
  3 70  1  0  0  0  0
 24  4  1  6  0  0  0
  4 81  1  0  0  0  0
  5 30  1  0  0  0  0
  5 38  1  0  0  0  0
  6 30  2  0  0  0  0
 46  7  1  6  0  0  0
  7 56  1  0  0  0  0
  8 53  1  0  0  0  0
  9 56  2  0  0  0  0
 10 57  1  0  0  0  0
 11135  1  0  0  0  0
 58 13  1  1  0  0  0
 13141  1  0  0  0  0
 14 59  1  0  0  0  0
 14142  1  0  0  0  0
 15 16  1  0  0  0  0
 15 17  1  0  0  0  0
 15 20  1  1  0  0  0
 15 60  1  0  0  0  0
 16 18  1  0  0  0  0
 16 21  1  1  0  0  0
 16 61  1  0  0  0  0
 17 19  1  0  0  0  0
 17 62  1  0  0  0  0
 18 19  1  0  0  0  0
 18 63  1  0  0  0  0
 19 64  1  0  0  0  0
 19 65  1  0  0  0  0
 20 22  1  0  0  0  0
 20 66  1  0  0  0  0
 20 67  1  0  0  0  0
 21 23  2  0  0  0  0
 21 68  1  0  0  0  0
 22 25  2  0  0  0  0
 22 71  1  0  0  0  0
 23 24  1  0  0  0  0
 23 72  1  0  0  0  0
 24 26  1  0  0  0  0
 24 73  1  0  0  0  0
 25 27  1  0  0  0  0
 25 74  1  0  0  0  0
 26 28  1  0  0  0  0
 26 75  1  0  0  0  0
 26 76  1  0  0  0  0
 27 30  1  0  0  0  0
 27 77  1  0  0  0  0
 27 78  1  0  0  0  0
 28 29  1  0  0  0  0
 28 79  1  0  0  0  0
 28 80  1  0  0  0  0
 29 31  1  0  0  0  0
 29 82  1  0  0  0  0
 29 83  1  0  0  0  0
 31 32  1  0  0  0  0
 31 84  1  0  0  0  0
 31 85  1  0  0  0  0
 32 86  1  0  0  0  0
 32 87  1  0  0  0  0
 32 88  1  0  0  0  0
 33 34  1  0  0  0  0
 33 35  1  0  0  0  0
 33 89  1  0  0  0  0
 33 90  1  0  0  0  0
 34 36  1  0  0  0  0
 34 91  1  0  0  0  0
 34 92  1  0  0  0  0
 35 37  1  0  0  0  0
 35 93  1  0  0  0  0
 35 94  1  0  0  0  0
 36 39  1  0  0  0  0
 36 95  1  0  0  0  0
 36 96  1  0  0  0  0
 37 40  1  0  0  0  0
 37 97  1  0  0  0  0
 37 98  1  0  0  0  0
 38 46  1  0  0  0  0
 38102  1  0  0  0  0
 38103  1  0  0  0  0
 39 41  1  0  0  0  0
 39 99  1  0  0  0  0
 39100  1  0  0  0  0
 40 47  1  0  0  0  0
 40 50  1  0  0  0  0
 40101  1  0  0  0  0
 41 42  1  0  0  0  0
 41104  1  0  0  0  0
 41105  1  0  0  0  0
 42 43  1  0  0  0  0
 42106  1  0  0  0  0
 42107  1  0  0  0  0
 43 44  1  0  0  0  0
 43108  1  0  0  0  0
 43109  1  0  0  0  0
 44 45  1  0  0  0  0
 44110  1  0  0  0  0
 44111  1  0  0  0  0
 45 48  1  0  0  0  0
 45112  1  0  0  0  0
 45113  1  0  0  0  0
 46 53  1  0  0  0  0
 46114  1  0  0  0  0
 47 54  1  0  0  0  0
 47115  1  0  0  0  0
 47116  1  0  0  0  0
 48 49  1  0  0  0  0
 48117  1  0  0  0  0
 48118  1  0  0  0  0
 49 51  1  0  0  0  0
 49119  1  0  0  0  0
 49120  1  0  0  0  0
 50121  1  0  0  0  0
 50122  1  0  0  0  0
 50123  1  0  0  0  0
 51 52  1  0  0  0  0
 51124  1  0  0  0  0
 51125  1  0  0  0  0
 52 55  1  0  0  0  0
 52126  1  0  0  0  0
 52127  1  0  0  0  0
 53128  1  0  0  0  0
 53129  1  0  0  0  0
 54130  1  0  0  0  0
 54131  1  0  0  0  0
 54132  1  0  0  0  0
 55 56  1  0  0  0  0
 55133  1  0  0  0  0
 55134  1  0  0  0  0
 57 58  1  0  0  0  0
 57136  1  0  0  0  0
 57137  1  0  0  0  0
 58 59  1  0  0  0  0
 58138  1  0  0  0  0
 59139  1  0  0  0  0
 59140  1  0  0  0  0
M  END
> <PUBCHEM_COMPOUND_CID>
156974238

> <PUBCHEM_COMPOUND_CANONICALIZED>
1

> <PUBCHEM_CACTVS_COMPLEXITY>
1170

> <PUBCHEM_CACTVS_HBOND_ACCEPTOR>
13

> <PUBCHEM_CACTVS_HBOND_DONOR>
6

> <PUBCHEM_CACTVS_ROTATABLE_BOND>
40

> <PUBCHEM_CACTVS_SUBSKEYS>
AAADcfB8PAIAAAAAAAAAAAAAAAAAAYAAAAAAAAAAAAAAAAAAAAAAGgAACCAADRSggAICCAAABxCIQCDSCIAAAAAgAAAICAEAAAgBFBIAAQACUAAFwAALEAPIyOCOgAAAAAAAAAAAAAAAAAAAAIQADAAAAA==

> <PUBCHEM_IUPAC_OPENEYE_NAME>
[(1R)-1-[[(Z)-5-[(1S,2R,3R,5S)-3,5-dihydroxy-2-[(E,3R)-3-hydroxyoct-1-enyl]cyclopentyl]pent-3-enoyl]oxymethyl]-2-[[(2S)-2,3-dihydroxypropoxy]-hydroxy-phosphoryl]oxy-ethyl] 18-methylicosanoate

> <PUBCHEM_IUPAC_CAS_NAME>
18-methyleicosanoic acid [(2R)-1-[(Z)-5-[(1S,2R,3R,5S)-3,5-dihydroxy-2-[(E,3R)-3-hydroxyoct-1-enyl]cyclopentyl]-1-oxopent-3-enoxy]-3-[[(2S)-2,3-dihydroxypropoxy]-hydroxyphosphoryl]oxypropan-2-yl] ester

> <PUBCHEM_IUPAC_NAME_MARKUP>
[(2<I>R</I>)-1-[(<I>Z</I>)-5-[(1<I>S</I>,2<I>R</I>,3<I>R</I>,5<I>S</I>)-3,5-dihydroxy-2-[(<I>E</I>,3<I>R</I>)-3-hydroxyoct-1-enyl]cyclopentyl]pent-3-enoyl]oxy-3-[[(2<I>S</I>)-2,3-dihydroxypropoxy]-hydroxyphosphoryl]oxypropan-2-yl] 18-methylicosanoate

> <PUBCHEM_IUPAC_NAME>
[(2R)-1-[(Z)-5-[(1S,2R,3R,5S)-3,5-dihydroxy-2-[(E,3R)-3-hydroxyoct-1-enyl]cyclopentyl]pent-3-enoyl]oxy-3-[[(2S)-2,3-dihydroxypropoxy]-hydroxyphosphoryl]oxypropan-2-yl] 18-methylicosanoate

> <PUBCHEM_IUPAC_SYSTEMATIC_NAME>
[(2R)-1-[(Z)-5-[(1S,2R,3R,5S)-3,5-bis(oxidanyl)-2-[(E,3R)-3-oxidanyloct-1-enyl]cyclopentyl]pent-3-enoyl]oxy-3-[[(2S)-2,3-bis(oxidanyl)propoxy]-oxidanyl-phosphoryl]oxy-propan-2-yl] 18-methylicosanoate

> <PUBCHEM_IUPAC_TRADITIONAL_NAME>
18-methylarachidic acid [(1R)-1-[[(Z)-5-[(1S,2R,3R,5S)-3,5-dihydroxy-2-[(E,3R)-3-hydroxyoct-1-enyl]cyclopentyl]pent-3-enoyl]oxymethyl]-2-[[(2S)-2,3-dihydroxypropoxy]-hydroxy-phosphoryl]oxy-ethyl] ester

> <PUBCHEM_IUPAC_INCHI>
InChI=1S/C45H83O13P/c1-4-6-19-25-37(47)29-30-41-40(42(49)31-43(41)50)26-22-23-27-44(51)55-34-39(35-57-59(53,54)56-33-38(48)32-46)58-45(52)28-21-18-16-14-12-10-8-7-9-11-13-15-17-20-24-36(3)5-2/h22-23,29-30,36-43,46-50H,4-21,24-28,31-35H2,1-3H3,(H,53,54)/b23-22-,30-29+/t36?,37-,38+,39-,40+,41-,42+,43-/m1/s1

> <PUBCHEM_IUPAC_INCHIKEY>
OAOOSHIMLCCREY-KIVQXAQVSA-N

> <PUBCHEM_XLOGP3_AA>
9.5

> <PUBCHEM_EXACT_MASS>
862.55712970

> <PUBCHEM_MOLECULAR_FORMULA>
C45H83O13P

> <PUBCHEM_MOLECULAR_WEIGHT>
863.1

> <PUBCHEM_OPENEYE_CAN_SMILES>
CCCCCC(C=CC1C(CC(C1CC=CCC(=O)OCC(COP(=O)(O)OCC(CO)O)OC(=O)CCCCCCCCCCCCCCCCC(C)CC)O)O)O

> <PUBCHEM_OPENEYE_ISO_SMILES>
CCCCC[C@H](/C=C/[C@H]1[C@@H](C[C@@H]([C@H]1C/C=C\CC(=O)OC[C@H](COP(=O)(O)OC[C@H](CO)O)OC(=O)CCCCCCCCCCCCCCCCC(C)CC)O)O)O

> <PUBCHEM_CACTVS_TPSA>
210

> <PUBCHEM_MONOISOTOPIC_WEIGHT>
862.55712970

> <PUBCHEM_TOTAL_CHARGE>
0

> <PUBCHEM_HEAVY_ATOM_COUNT>
59

> <PUBCHEM_ATOM_DEF_STEREO_COUNT>
7

> <PUBCHEM_ATOM_UDEF_STEREO_COUNT>
1

> <PUBCHEM_BOND_DEF_STEREO_COUNT>
2

> <PUBCHEM_BOND_UDEF_STEREO_COUNT>
0

> <PUBCHEM_ISOTOPIC_ATOM_COUNT>
0

> <PUBCHEM_COMPONENT_COUNT>
1

> <PUBCHEM_CACTVS_TAUTO_COUNT>
-1

> <PUBCHEM_COORDINATE_TYPE>
1
5
255

> <PUBCHEM_BONDANNOTATIONS>
58  13  5
15  20  5
16  21  5
17  2  6
18  3  6
24  4  6
40  50  3
46  7  6

$$$$
